tests/fixtures/ieee118.raw
 0, 100.0,  33, 0, 0, 60.00 / PSS/E-33.0
IEEE 118 Bus Test Case

 1,'',138.0,2,1,1,1,1.000000,0.000000,1.0600,0.9400
 2,'',138.0,1,1,1,1,1.000000,0.000000,1.0600,0.9400
 3,'',138.0,1,1,1,1,1.000000,0.000000,1.0600,0.9400
 4,'',138.0,2,1,1,1,1.000000,0.000000,1.0600,0.9400
 5,'',138.0,1,1,1,1,1.000000,0.000000,1.0600,0.9400
 6,'',138.0,2,1,1,1,1.000000,0.000000,1.0600,0.9400
 7,'',138.0,1,1,1,1,1.000000,0.000000,1.0600,0.9400
 8,'',345.0,2,1,1,1,1.000000,0.000000,1.0600,0.9400
 9,'',345.0,1,1,1,1,1.000000,0.000000,1.0600,0.9400
 10,'',345.0,2,1,1,1,1.000000,0.000000,1.0600,0.9400
 11,'',138.0,1,1,1,1,1.000000,0.000000,1.0600,0.9400
 12,'',138.0,2,1,1,1,1.000000,0.000000,1.0600,0.9400
 13,'',138.0,1,1,1,1,1.000000,0.000000,1.0600,0.9400
 14,'',138.0,1,1,1,1,1.000000,0.000000,1.0600,0.9400
 15,'',138.0,2,1,1,1,1.000000,0.000000,1.0600,0.9400
 16,'',138.0,1,1,1,1,1.000000,0.000000,1.0600,0.9400
 17,'',138.0,1,1,1,1,1.000000,0.000000,1.0600,0.9400
 18,'',138.0,2,1,1,1,1.000000,0.000000,1.0600,0.9400
 19,'',138.0,2,1,1,1,1.000000,0.000000,1.0600,0.9400
 20,'',138.0,1,1,1,1,1.000000,0.000000,1.0600,0.9400
 21,'',138.0,1,1,1,1,1.000000,0.000000,1.0600,0.9400
 22,'',138.0,1,1,1,1,1.000000,0.000000,1.0600,0.9400
 23,'',138.0,1,1,1,1,1.000000,0.000000,1.0600,0.9400
 24,'',138.0,2,1,1,1,1.000000,0.000000,1.0600,0.9400
 25,'',138.0,2,1,1,1,1.000000,0.000000,1.0600,0.9400
 26,'',345.0,2,1,1,1,1.000000,0.000000,1.0600,0.9400
 27,'',138.0,2,1,1,1,1.000000,0.000000,1.0600,0.9400
 28,'',138.0,1,1,1,1,1.000000,0.000000,1.0600,0.9400
 29,'',138.0,1,1,1,1,1.000000,0.000000,1.0600,0.9400
 30,'',345.0,1,1,1,1,1.000000,0.000000,1.0600,0.9400
 31,'',138.0,2,1,1,1,1.000000,0.000000,1.0600,0.9400
 32,'',138.0,2,1,1,1,1.000000,0.000000,1.0600,0.9400
 33,'',138.0,1,1,1,1,1.000000,0.000000,1.0600,0.9400
 34,'',138.0,2,1,1,1,1.000000,0.000000,1.0600,0.9400
 35,'',138.0,1,1,1,1,1.000000,0.000000,1.0600,0.9400
 36,'',138.0,2,1,1,1,1.000000,0.000000,1.0600,0.9400
 37,'',138.0,1,1,1,1,1.000000,0.000000,1.0600,0.9400
 38,'',345.0,1,1,1,1,1.000000,0.000000,1.0600,0.9400
 39,'',138.0,1,1,1,1,1.000000,0.000000,1.0600,0.9400
 40,'',138.0,2,1,1,1,1.000000,0.000000,1.0600,0.9400
 41,'',138.0,1,1,1,1,1.000000,0.000000,1.0600,0.9400
 42,'',138.0,2,1,1,1,1.000000,0.000000,1.0600,0.9400
 43,'',138.0,1,1,1,1,1.000000,0.000000,1.0600,0.9400
 44,'',138.0,1,1,1,1,1.000000,0.000000,1.0600,0.9400
 45,'',138.0,1,1,1,1,1.000000,0.000000,1.0600,0.9400
 46,'',138.0,2,1,1,1,1.000000,0.000000,1.0600,0.9400
 47,'',138.0,1,1,1,1,1.000000,0.000000,1.0600,0.9400
 48,'',138.0,1,1,1,1,1.000000,0.000000,1.0600,0.9400
 49,'',138.0,2,1,1,1,1.000000,0.000000,1.0600,0.9400
 50,'',138.0,1,1,1,1,1.000000,0.000000,1.0600,0.9400
 51,'',138.0,1,1,1,1,1.000000,0.000000,1.0600,0.9400
 52,'',138.0,1,1,1,1,1.000000,0.000000,1.0600,0.9400
 53,'',138.0,1,1,1,1,1.000000,0.000000,1.0600,0.9400
 54,'',138.0,2,1,1,1,1.000000,0.000000,1.0600,0.9400
 55,'',138.0,2,1,1,1,1.000000,0.000000,1.0600,0.9400
 56,'',138.0,2,1,1,1,1.000000,0.000000,1.0600,0.9400
 57,'',138.0,1,1,1,1,1.000000,0.000000,1.0600,0.9400
 58,'',138.0,1,1,1,1,1.000000,0.000000,1.0600,0.9400
 59,'',138.0,2,1,1,1,1.000000,0.000000,1.0600,0.9400
 60,'',138.0,1,1,1,1,1.000000,0.000000,1.0600,0.9400
 61,'',138.0,2,1,1,1,1.000000,0.000000,1.0600,0.9400
 62,'',138.0,2,1,1,1,1.000000,0.000000,1.0600,0.9400
 63,'',345.0,1,1,1,1,1.000000,0.000000,1.0600,0.9400
 64,'',345.0,1,1,1,1,1.000000,0.000000,1.0600,0.9400
 65,'',345.0,2,1,1,1,1.000000,0.000000,1.0600,0.9400
 66,'',138.0,2,1,1,1,1.000000,0.000000,1.0600,0.9400
 67,'',138.0,1,1,1,1,1.000000,0.000000,1.0600,0.9400
 68,'',345.0,1,1,1,1,1.000000,0.000000,1.0600,0.9400
 69,'',138.0,3,1,1,1,1.000000,0.000000,1.0600,0.9400
 70,'',138.0,2,1,1,1,1.000000,0.000000,1.0600,0.9400
 71,'',138.0,1,1,1,1,1.000000,0.000000,1.0600,0.9400
 72,'',138.0,2,1,1,1,1.000000,0.000000,1.0600,0.9400
 73,'',138.0,2,1,1,1,1.000000,0.000000,1.0600,0.9400
 74,'',138.0,2,1,1,1,1.000000,0.000000,1.0600,0.9400
 75,'',138.0,1,1,1,1,1.000000,0.000000,1.0600,0.9400
 76,'',138.0,2,1,1,1,1.000000,0.000000,1.0600,0.9400
 77,'',138.0,2,1,1,1,1.000000,0.000000,1.0600,0.9400
 78,'',138.0,1,1,1,1,1.000000,0.000000,1.0600,0.9400
 79,'',138.0,1,1,1,1,1.000000,0.000000,1.0600,0.9400
 80,'',138.0,2,1,1,1,1.000000,0.000000,1.0600,0.9400
 81,'',345.0,1,1,1,1,1.000000,0.000000,1.0600,0.9400
 82,'',138.0,1,1,1,1,1.000000,0.000000,1.0600,0.9400
 83,'',138.0,1,1,1,1,1.000000,0.000000,1.0600,0.9400
 84,'',138.0,1,1,1,1,1.000000,0.000000,1.0600,0.9400
 85,'',138.0,2,1,1,1,1.000000,0.000000,1.0600,0.9400
 86,'',138.0,1,1,1,1,1.000000,0.000000,1.0600,0.9400
 87,'',161.0,2,1,1,1,1.000000,0.000000,1.0600,0.9400
 88,'',138.0,1,1,1,1,1.000000,0.000000,1.0600,0.9400
 89,'',138.0,2,1,1,1,1.000000,0.000000,1.0600,0.9400
 90,'',138.0,2,1,1,1,1.000000,0.000000,1.0600,0.9400
 91,'',138.0,2,1,1,1,1.000000,0.000000,1.0600,0.9400
 92,'',138.0,2,1,1,1,1.000000,0.000000,1.0600,0.9400
 93,'',138.0,1,1,1,1,1.000000,0.000000,1.0600,0.9400
 94,'',138.0,1,1,1,1,1.000000,0.000000,1.0600,0.9400
 95,'',138.0,1,1,1,1,1.000000,0.000000,1.0600,0.9400
 96,'',138.0,1,1,1,1,1.000000,0.000000,1.0600,0.9400
 97,'',138.0,1,1,1,1,1.000000,0.000000,1.0600,0.9400
 98,'',138.0,1,1,1,1,1.000000,0.000000,1.0600,0.9400
 99,'',138.0,2,1,1,1,1.000000,0.000000,1.0600,0.9400
 100,'',138.0,2,1,1,1,1.000000,0.000000,1.0600,0.9400
 101,'',138.0,1,1,1,1,1.000000,0.000000,1.0600,0.9400
 102,'',138.0,1,1,1,1,1.000000,0.000000,1.0600,0.9400
 103,'',138.0,2,1,1,1,1.000000,0.000000,1.0600,0.9400
 104,'',138.0,2,1,1,1,1.000000,0.000000,1.0600,0.9400
 105,'',138.0,2,1,1,1,1.000000,0.000000,1.0600,0.9400
 106,'',138.0,1,1,1,1,1.000000,0.000000,1.0600,0.9400
 107,'',138.0,2,1,1,1,1.000000,0.000000,1.0600,0.9400
 108,'',138.0,1,1,1,1,1.000000,0.000000,1.0600,0.9400
 109,'',138.0,1,1,1,1,1.000000,0.000000,1.0600,0.9400
 110,'',138.0,2,1,1,1,1.000000,0.000000,1.0600,0.9400
 111,'',138.0,2,1,1,1,1.000000,0.000000,1.0600,0.9400
 112,'',138.0,2,1,1,1,1.000000,0.000000,1.0600,0.9400
 113,'',138.0,2,1,1,1,1.000000,0.000000,1.0600,0.9400
 114,'',138.0,1,1,1,1,1.000000,0.000000,1.0600,0.9400
 115,'',138.0,1,1,1,1,1.000000,0.000000,1.0600,0.9400
 116,'',138.0,2,1,1,1,1.000000,0.000000,1.0600,0.9400
 117,'',138.0,1,1,1,1,1.000000,0.000000,1.0600,0.9400
 118,'',138.0,1,1,1,1,1.000000,0.000000,1.0600,0.9400
0 / END OF BUS DATA, BEGIN LOAD DATA
 1,'1',1,1,1,51.000000,27.000000,0.0,0.0,0.0,0.0,1,1,0
 2,'1',1,1,1,20.000000,9.000000,0.0,0.0,0.0,0.0,1,1,0
 3,'1',1,1,1,39.000000,10.000000,0.0,0.0,0.0,0.0,1,1,0
 4,'1',1,1,1,39.000000,12.000000,0.0,0.0,0.0,0.0,1,1,0
 6,'1',1,1,1,52.000000,22.000000,0.0,0.0,0.0,0.0,1,1,0
 7,'1',1,1,1,19.000000,2.000000,0.0,0.0,0.0,0.0,1,1,0
 8,'1',1,1,1,28.000000,0.000000,0.0,0.0,0.0,0.0,1,1,0
 11,'1',1,1,1,70.000000,23.000000,0.0,0.0,0.0,0.0,1,1,0
 12,'1',1,1,1,47.000000,10.000000,0.0,0.0,0.0,0.0,1,1,0
 13,'1',1,1,1,34.000000,16.000000,0.0,0.0,0.0,0.0,1,1,0
 14,'1',1,1,1,14.000000,1.000000,0.0,0.0,0.0,0.0,1,1,0
 15,'1',1,1,1,90.000000,30.000000,0.0,0.0,0.0,0.0,1,1,0
 16,'1',1,1,1,25.000000,10.000000,0.0,0.0,0.0,0.0,1,1,0
 17,'1',1,1,1,11.000000,3.000000,0.0,0.0,0.0,0.0,1,1,0
 18,'1',1,1,1,60.000000,34.000000,0.0,0.0,0.0,0.0,1,1,0
 19,'1',1,1,1,45.000000,25.000000,0.0,0.0,0.0,0.0,1,1,0
 20,'1',1,1,1,18.000000,3.000000,0.0,0.0,0.0,0.0,1,1,0
 21,'1',1,1,1,14.000000,8.000000,0.0,0.0,0.0,0.0,1,1,0
 22,'1',1,1,1,10.000000,5.000000,0.0,0.0,0.0,0.0,1,1,0
 23,'1',1,1,1,7.000000,3.000000,0.0,0.0,0.0,0.0,1,1,0
 24,'1',1,1,1,13.000000,0.000000,0.0,0.0,0.0,0.0,1,1,0
 27,'1',1,1,1,71.000000,13.000000,0.0,0.0,0.0,0.0,1,1,0
 28,'1',1,1,1,17.000000,7.000000,0.0,0.0,0.0,0.0,1,1,0
 29,'1',1,1,1,24.000000,4.000000,0.0,0.0,0.0,0.0,1,1,0
 31,'1',1,1,1,43.000000,27.000000,0.0,0.0,0.0,0.0,1,1,0
 32,'1',1,1,1,59.000000,23.000000,0.0,0.0,0.0,0.0,1,1,0
 33,'1',1,1,1,23.000000,9.000000,0.0,0.0,0.0,0.0,1,1,0
 34,'1',1,1,1,59.000000,26.000000,0.0,0.0,0.0,0.0,1,1,0
 35,'1',1,1,1,33.000000,9.000000,0.0,0.0,0.0,0.0,1,1,0
 36,'1',1,1,1,31.000000,17.000000,0.0,0.0,0.0,0.0,1,1,0
 39,'1',1,1,1,27.000000,11.000000,0.0,0.0,0.0,0.0,1,1,0
 40,'1',1,1,1,66.000000,23.000000,0.0,0.0,0.0,0.0,1,1,0
 41,'1',1,1,1,37.000000,10.000000,0.0,0.0,0.0,0.0,1,1,0
 42,'1',1,1,1,96.000000,23.000000,0.0,0.0,0.0,0.0,1,1,0
 43,'1',1,1,1,18.000000,7.000000,0.0,0.0,0.0,0.0,1,1,0
 44,'1',1,1,1,16.000000,8.000000,0.0,0.0,0.0,0.0,1,1,0
 45,'1',1,1,1,53.000000,22.000000,0.0,0.0,0.0,0.0,1,1,0
 46,'1',1,1,1,28.000000,10.000000,0.0,0.0,0.0,0.0,1,1,0
 47,'1',1,1,1,34.000000,0.000000,0.0,0.0,0.0,0.0,1,1,0
 48,'1',1,1,1,20.000000,11.000000,0.0,0.0,0.0,0.0,1,1,0
 49,'1',1,1,1,87.000000,30.000000,0.0,0.0,0.0,0.0,1,1,0
 50,'1',1,1,1,17.000000,4.000000,0.0,0.0,0.0,0.0,1,1,0
 51,'1',1,1,1,17.000000,8.000000,0.0,0.0,0.0,0.0,1,1,0
 52,'1',1,1,1,18.000000,5.000000,0.0,0.0,0.0,0.0,1,1,0
 53,'1',1,1,1,23.000000,11.000000,0.0,0.0,0.0,0.0,1,1,0
 54,'1',1,1,1,113.000000,32.000000,0.0,0.0,0.0,0.0,1,1,0
 55,'1',1,1,1,63.000000,22.000000,0.0,0.0,0.0,0.0,1,1,0
 56,'1',1,1,1,84.000000,18.000000,0.0,0.0,0.0,0.0,1,1,0
 57,'1',1,1,1,12.000000,3.000000,0.0,0.0,0.0,0.0,1,1,0
 58,'1',1,1,1,12.000000,3.000000,0.0,0.0,0.0,0.0,1,1,0
 59,'1',1,1,1,277.000000,113.000000,0.0,0.0,0.0,0.0,1,1,0
 60,'1',1,1,1,78.000000,3.000000,0.0,0.0,0.0,0.0,1,1,0
 62,'1',1,1,1,77.000000,14.000000,0.0,0.0,0.0,0.0,1,1,0
 66,'1',1,1,1,39.000000,18.000000,0.0,0.0,0.0,0.0,1,1,0
 67,'1',1,1,1,28.000000,7.000000,0.0,0.0,0.0,0.0,1,1,0
 70,'1',1,1,1,66.000000,20.000000,0.0,0.0,0.0,0.0,1,1,0
 72,'1',1,1,1,12.000000,0.000000,0.0,0.0,0.0,0.0,1,1,0
 73,'1',1,1,1,6.000000,0.000000,0.0,0.0,0.0,0.0,1,1,0
 74,'1',1,1,1,68.000000,27.000000,0.0,0.0,0.0,0.0,1,1,0
 75,'1',1,1,1,47.000000,11.000000,0.0,0.0,0.0,0.0,1,1,0
 76,'1',1,1,1,68.000000,36.000000,0.0,0.0,0.0,0.0,1,1,0
 77,'1',1,1,1,61.000000,28.000000,0.0,0.0,0.0,0.0,1,1,0
 78,'1',1,1,1,71.000000,26.000000,0.0,0.0,0.0,0.0,1,1,0
 79,'1',1,1,1,39.000000,32.000000,0.0,0.0,0.0,0.0,1,1,0
 80,'1',1,1,1,130.000000,26.000000,0.0,0.0,0.0,0.0,1,1,0
 82,'1',1,1,1,54.000000,27.000000,0.0,0.0,0.0,0.0,1,1,0
 83,'1',1,1,1,20.000000,10.000000,0.0,0.0,0.0,0.0,1,1,0
 84,'1',1,1,1,11.000000,7.000000,0.0,0.0,0.0,0.0,1,1,0
 85,'1',1,1,1,24.000000,15.000000,0.0,0.0,0.0,0.0,1,1,0
 86,'1',1,1,1,21.000000,10.000000,0.0,0.0,0.0,0.0,1,1,0
 88,'1',1,1,1,48.000000,10.000000,0.0,0.0,0.0,0.0,1,1,0
 90,'1',1,1,1,163.000000,42.000000,0.0,0.0,0.0,0.0,1,1,0
 91,'1',1,1,1,10.000000,0.000000,0.0,0.0,0.0,0.0,1,1,0
 92,'1',1,1,1,65.000000,10.000000,0.0,0.0,0.0,0.0,1,1,0
 93,'1',1,1,1,12.000000,7.000000,0.0,0.0,0.0,0.0,1,1,0
 94,'1',1,1,1,30.000000,16.000000,0.0,0.0,0.0,0.0,1,1,0
 95,'1',1,1,1,42.000000,31.000000,0.0,0.0,0.0,0.0,1,1,0
 96,'1',1,1,1,38.000000,15.000000,0.0,0.0,0.0,0.0,1,1,0
 97,'1',1,1,1,15.000000,9.000000,0.0,0.0,0.0,0.0,1,1,0
 98,'1',1,1,1,34.000000,8.000000,0.0,0.0,0.0,0.0,1,1,0
 99,'1',1,1,1,42.000000,0.000000,0.0,0.0,0.0,0.0,1,1,0
 100,'1',1,1,1,37.000000,18.000000,0.0,0.0,0.0,0.0,1,1,0
 101,'1',1,1,1,22.000000,15.000000,0.0,0.0,0.0,0.0,1,1,0
 102,'1',1,1,1,5.000000,3.000000,0.0,0.0,0.0,0.0,1,1,0
 103,'1',1,1,1,23.000000,16.000000,0.0,0.0,0.0,0.0,1,1,0
 104,'1',1,1,1,38.000000,25.000000,0.0,0.0,0.0,0.0,1,1,0
 105,'1',1,1,1,31.000000,26.000000,0.0,0.0,0.0,0.0,1,1,0
 106,'1',1,1,1,43.000000,16.000000,0.0,0.0,0.0,0.0,1,1,0
 107,'1',1,1,1,50.000000,12.000000,0.0,0.0,0.0,0.0,1,1,0
 108,'1',1,1,1,2.000000,1.000000,0.0,0.0,0.0,0.0,1,1,0
 109,'1',1,1,1,8.000000,3.000000,0.0,0.0,0.0,0.0,1,1,0
 110,'1',1,1,1,39.000000,30.000000,0.0,0.0,0.0,0.0,1,1,0
 112,'1',1,1,1,68.000000,13.000000,0.0,0.0,0.0,0.0,1,1,0
 113,'1',1,1,1,6.000000,0.000000,0.0,0.0,0.0,0.0,1,1,0
 114,'1',1,1,1,8.000000,3.000000,0.0,0.0,0.0,0.0,1,1,0
 115,'1',1,1,1,22.000000,7.000000,0.0,0.0,0.0,0.0,1,1,0
 116,'1',1,1,1,184.000000,0.000000,0.0,0.0,0.0,0.0,1,1,0
 117,'1',1,1,1,20.000000,8.000000,0.0,0.0,0.0,0.0,1,1,0
 118,'1',1,1,1,33.000000,15.000000,0.0,0.0,0.0,0.0,1,1,0
0 / END OF LOAD DATA, BEGIN FIXED SHUNT DATA
 5,'1',1,0.000000,-40.000000
 34,'1',1,0.000000,14.000000
 37,'1',1,0.000000,-25.000000
 44,'1',1,0.000000,10.000000
 45,'1',1,0.000000,10.000000
 46,'1',1,0.000000,10.000000
 48,'1',1,0.000000,15.000000
 74,'1',1,0.000000,12.000000
 79,'1',1,0.000000,20.000000
 82,'1',1,0.000000,20.000000
 83,'1',1,0.000000,10.000000
 105,'1',1,0.000000,20.000000
 107,'1',1,0.000000,6.000000
 110,'1',1,0.000000,6.000000
0 / END OF FIXED SHUNT DATA, BEGIN GENERATOR DATA
 1,'1',0.000000,5.000000,15.000000,-5.000000,1.000000,0,100.0,0.0,1.0,0.0,0.0,1.0,1,100.0,0.000000,0.000000
 4,'1',0.000000,0.000000,300.000000,-300.000000,1.000000,0,100.0,0.0,1.0,0.0,0.0,1.0,1,100.0,0.000000,0.000000
 6,'1',0.000000,18.500000,50.000000,-13.000000,1.000000,0,100.0,0.0,1.0,0.0,0.0,1.0,1,100.0,0.000000,0.000000
 8,'1',0.000000,0.000000,300.000000,-300.000000,1.000000,0,100.0,0.0,1.0,0.0,0.0,1.0,1,100.0,0.000000,0.000000
 10,'1',252.500000,26.500000,200.000000,-147.000000,1.000000,0,100.0,0.0,1.0,0.0,0.0,1.0,1,100.0,505.000000,0.000000
 12,'1',42.500000,4.000000,43.000000,-35.000000,1.000000,0,100.0,0.0,1.0,0.0,0.0,1.0,1,100.0,85.000000,0.000000
 15,'1',0.000000,10.000000,30.000000,-10.000000,1.000000,0,100.0,0.0,1.0,0.0,0.0,1.0,1,100.0,0.000000,0.000000
 18,'1',0.000000,17.000000,50.000000,-16.000000,1.000000,0,100.0,0.0,1.0,0.0,0.0,1.0,1,100.0,0.000000,0.000000
 19,'1',0.000000,8.000000,24.000000,-8.000000,1.000000,0,100.0,0.0,1.0,0.0,0.0,1.0,1,100.0,0.000000,0.000000
 24,'1',0.000000,0.000000,300.000000,-300.000000,1.000000,0,100.0,0.0,1.0,0.0,0.0,1.0,1,100.0,0.000000,0.000000
 25,'1',110.500000,32.000000,111.000000,-47.000000,1.000000,0,100.0,0.0,1.0,0.0,0.0,1.0,1,100.0,221.000000,0.000000
 26,'1',242.500000,0.000000,243.000000,-243.000000,1.000000,0,100.0,0.0,1.0,0.0,0.0,1.0,1,100.0,485.000000,0.000000
 27,'1',0.000000,0.000000,300.000000,-300.000000,1.000000,0,100.0,0.0,1.0,0.0,0.0,1.0,1,100.0,0.000000,0.000000
 31,'1',8.500000,0.000000,9.000000,-9.000000,1.000000,0,100.0,0.0,1.0,0.0,0.0,1.0,1,100.0,17.000000,0.000000
 32,'1',0.000000,14.000000,42.000000,-14.000000,1.000000,0,100.0,0.0,1.0,0.0,0.0,1.0,1,100.0,0.000000,0.000000
 34,'1',0.000000,8.000000,24.000000,-8.000000,1.000000,0,100.0,0.0,1.0,0.0,0.0,1.0,1,100.0,0.000000,0.000000
 36,'1',0.000000,8.000000,24.000000,-8.000000,1.000000,0,100.0,0.0,1.0,0.0,0.0,1.0,1,100.0,0.000000,0.000000
 40,'1',0.000000,0.000000,300.000000,-300.000000,1.000000,0,100.0,0.0,1.0,0.0,0.0,1.0,1,100.0,0.000000,0.000000
 42,'1',0.000000,0.000000,300.000000,-300.000000,1.000000,0,100.0,0.0,1.0,0.0,0.0,1.0,1,100.0,0.000000,0.000000
 46,'1',10.000000,0.000000,10.000000,-10.000000,1.000000,0,100.0,0.0,1.0,0.0,0.0,1.0,1,100.0,20.000000,0.000000
 49,'1',111.500000,13.500000,112.000000,-85.000000,1.000000,0,100.0,0.0,1.0,0.0,0.0,1.0,1,100.0,223.000000,0.000000
 54,'1',26.500000,0.000000,27.000000,-27.000000,1.000000,0,100.0,0.0,1.0,0.0,0.0,1.0,1,100.0,53.000000,0.000000
 55,'1',0.000000,7.500000,23.000000,-8.000000,1.000000,0,100.0,0.0,1.0,0.0,0.0,1.0,1,100.0,0.000000,0.000000
 56,'1',0.000000,3.500000,15.000000,-8.000000,1.000000,0,100.0,0.0,1.0,0.0,0.0,1.0,1,100.0,0.000000,0.000000
 59,'1',154.000000,47.000000,154.000000,-60.000000,1.000000,0,100.0,0.0,1.0,0.0,0.0,1.0,1,100.0,308.000000,0.000000
 61,'1',97.500000,0.000000,98.000000,-98.000000,1.000000,0,100.0,0.0,1.0,0.0,0.0,1.0,1,100.0,195.000000,0.000000
 62,'1',0.000000,0.000000,20.000000,-20.000000,1.000000,0,100.0,0.0,1.0,0.0,0.0,1.0,1,100.0,0.000000,0.000000
 65,'1',220.500000,66.500000,200.000000,-67.000000,1.000000,0,100.0,0.0,1.0,0.0,0.0,1.0,1,100.0,441.000000,0.000000
 66,'1',392.000000,66.500000,200.000000,-67.000000,1.000000,0,100.0,0.0,1.0,0.0,0.0,1.0,1,100.0,784.000000,0.000000
 69,'1',591.000000,0.000000,300.000000,-300.000000,1.000000,0,100.0,0.0,1.0,0.0,0.0,1.0,1,100.0,1182.000000,0.000000
 70,'1',0.000000,11.000000,32.000000,-10.000000,1.000000,0,100.0,0.0,1.0,0.0,0.0,1.0,1,100.0,0.000000,0.000000
 72,'1',0.000000,0.000000,100.000000,-100.000000,1.000000,0,100.0,0.0,1.0,0.0,0.0,1.0,1,100.0,0.000000,0.000000
 73,'1',0.000000,0.000000,100.000000,-100.000000,1.000000,0,100.0,0.0,1.0,0.0,0.0,1.0,1,100.0,0.000000,0.000000
 74,'1',0.000000,1.500000,9.000000,-6.000000,1.000000,0,100.0,0.0,1.0,0.0,0.0,1.0,1,100.0,0.000000,0.000000
 76,'1',0.000000,7.500000,23.000000,-8.000000,1.000000,0,100.0,0.0,1.0,0.0,0.0,1.0,1,100.0,0.000000,0.000000
 77,'1',0.000000,25.000000,70.000000,-20.000000,1.000000,0,100.0,0.0,1.0,0.0,0.0,1.0,1,100.0,0.000000,0.000000
 80,'1',254.500000,45.000000,255.000000,-165.000000,1.000000,0,100.0,0.0,1.0,0.0,0.0,1.0,1,100.0,509.000000,0.000000
 85,'1',0.000000,7.500000,23.000000,-8.000000,1.000000,0,100.0,0.0,1.0,0.0,0.0,1.0,1,100.0,0.000000,0.000000
 87,'1',5.000000,0.000000,5.000000,-5.000000,1.000000,0,100.0,0.0,1.0,0.0,0.0,1.0,1,100.0,10.000000,0.000000
 89,'1',318.500000,45.000000,300.000000,-210.000000,1.000000,0,100.0,0.0,1.0,0.0,0.0,1.0,1,100.0,637.000000,0.000000
 90,'1',0.000000,0.000000,300.000000,-300.000000,1.000000,0,100.0,0.0,1.0,0.0,0.0,1.0,1,100.0,0.000000,0.000000
 91,'1',0.000000,0.000000,100.000000,-100.000000,1.000000,0,100.0,0.0,1.0,0.0,0.0,1.0,1,100.0,0.000000,0.000000
 92,'1',0.000000,3.000000,9.000000,-3.000000,1.000000,0,100.0,0.0,1.0,0.0,0.0,1.0,1,100.0,0.000000,0.000000
 99,'1',0.000000,0.000000,100.000000,-100.000000,1.000000,0,100.0,0.0,1.0,0.0,0.0,1.0,1,100.0,0.000000,0.000000
 100,'1',326.500000,52.500000,155.000000,-50.000000,1.000000,0,100.0,0.0,1.0,0.0,0.0,1.0,1,100.0,653.000000,0.000000
 103,'1',54.000000,12.500000,40.000000,-15.000000,1.000000,0,100.0,0.0,1.0,0.0,0.0,1.0,1,100.0,108.000000,0.000000
 104,'1',0.000000,7.500000,23.000000,-8.000000,1.000000,0,100.0,0.0,1.0,0.0,0.0,1.0,1,100.0,0.000000,0.000000
 105,'1',0.000000,7.500000,23.000000,-8.000000,1.000000,0,100.0,0.0,1.0,0.0,0.0,1.0,1,100.0,0.000000,0.000000
 107,'1',0.000000,0.000000,200.000000,-200.000000,1.000000,0,100.0,0.0,1.0,0.0,0.0,1.0,1,100.0,0.000000,0.000000
 110,'1',0.000000,7.500000,23.000000,-8.000000,1.000000,0,100.0,0.0,1.0,0.0,0.0,1.0,1,100.0,0.000000,0.000000
 111,'1',39.500000,0.000000,40.000000,-40.000000,1.000000,0,100.0,0.0,1.0,0.0,0.0,1.0,1,100.0,79.000000,0.000000
 112,'1',0.000000,450.000000,1000.000000,-100.000000,1.000000,0,100.0,0.0,1.0,0.0,0.0,1.0,1,100.0,0.000000,0.000000
 113,'1',0.000000,50.000000,200.000000,-100.000000,1.000000,0,100.0,0.0,1.0,0.0,0.0,1.0,1,100.0,0.000000,0.000000
 116,'1',0.000000,0.000000,1000.000000,-1000.000000,1.000000,0,100.0,0.0,1.0,0.0,0.0,1.0,1,100.0,0.000000,0.000000
0 / END OF GENERATOR DATA, BEGIN BRANCH DATA
 1,2,'1',0.030300,0.099900,0.025400,151.00,151.00,151.00,0.0,0.0,0.0,0.0,1,0,0.0
 1,3,'1',0.012900,0.042400,0.010820,151.00,151.00,151.00,0.0,0.0,0.0,0.0,1,0,0.0
 4,5,'1',0.001760,0.007980,0.002100,176.00,176.00,176.00,0.0,0.0,0.0,0.0,1,0,0.0
 3,5,'1',0.024100,0.108000,0.028400,175.00,175.00,175.00,0.0,0.0,0.0,0.0,1,0,0.0
 5,6,'1',0.011900,0.054000,0.014260,176.00,176.00,176.00,0.0,0.0,0.0,0.0,1,0,0.0
 6,7,'1',0.004590,0.020800,0.005500,176.00,176.00,176.00,0.0,0.0,0.0,0.0,1,0,0.0
 8,9,'1',0.002440,0.030500,1.162000,711.00,711.00,711.00,0.0,0.0,0.0,0.0,1,0,0.0
 9,10,'1',0.002580,0.032200,1.230000,710.00,710.00,710.00,0.0,0.0,0.0,0.0,1,0,0.0
 4,11,'1',0.020900,0.068800,0.017480,151.00,151.00,151.00,0.0,0.0,0.0,0.0,1,0,0.0
 5,11,'1',0.020300,0.068200,0.017380,152.00,152.00,152.00,0.0,0.0,0.0,0.0,1,0,0.0
 11,12,'1',0.005950,0.019600,0.005020,151.00,151.00,151.00,0.0,0.0,0.0,0.0,1,0,0.0
 2,12,'1',0.018700,0.061600,0.015720,151.00,151.00,151.00,0.0,0.0,0.0,0.0,1,0,0.0
 3,12,'1',0.048400,0.160000,0.040600,151.00,151.00,151.00,0.0,0.0,0.0,0.0,1,0,0.0
 7,12,'1',0.008620,0.034000,0.008740,164.00,164.00,164.00,0.0,0.0,0.0,0.0,1,0,0.0
 11,13,'1',0.022250,0.073100,0.018760,151.00,151.00,151.00,0.0,0.0,0.0,0.0,1,0,0.0
 12,14,'1',0.021500,0.070700,0.018160,151.00,151.00,151.00,0.0,0.0,0.0,0.0,1,0,0.0
 13,15,'1',0.074400,0.244400,0.062680,115.00,115.00,115.00,0.0,0.0,0.0,0.0,1,0,0.0
 14,15,'1',0.059500,0.195000,0.050200,144.00,144.00,144.00,0.0,0.0,0.0,0.0,1,0,0.0
 12,16,'1',0.021200,0.083400,0.021400,164.00,164.00,164.00,0.0,0.0,0.0,0.0,1,0,0.0
 15,17,'1',0.013200,0.043700,0.044400,151.00,151.00,151.00,0.0,0.0,0.0,0.0,1,0,0.0
 16,17,'1',0.045400,0.180100,0.046600,158.00,158.00,158.00,0.0,0.0,0.0,0.0,1,0,0.0
 17,18,'1',0.012300,0.050500,0.012980,167.00,167.00,167.00,0.0,0.0,0.0,0.0,1,0,0.0
 18,19,'1',0.011190,0.049300,0.011420,173.00,173.00,173.00,0.0,0.0,0.0,0.0,1,0,0.0
 19,20,'1',0.025200,0.117000,0.029800,178.00,178.00,178.00,0.0,0.0,0.0,0.0,1,0,0.0
 15,19,'1',0.012000,0.039400,0.010100,151.00,151.00,151.00,0.0,0.0,0.0,0.0,1,0,0.0
 20,21,'1',0.018300,0.084900,0.021600,177.00,177.00,177.00,0.0,0.0,0.0,0.0,1,0,0.0
 21,22,'1',0.020900,0.097000,0.024600,178.00,178.00,178.00,0.0,0.0,0.0,0.0,1,0,0.0
 22,23,'1',0.034200,0.159000,0.040400,178.00,178.00,178.00,0.0,0.0,0.0,0.0,1,0,0.0
 23,24,'1',0.013500,0.049200,0.049800,158.00,158.00,158.00,0.0,0.0,0.0,0.0,1,0,0.0
 23,25,'1',0.015600,0.080000,0.086400,186.00,186.00,186.00,0.0,0.0,0.0,0.0,1,0,0.0
 25,27,'1',0.031800,0.163000,0.176400,177.00,177.00,177.00,0.0,0.0,0.0,0.0,1,0,0.0
 27,28,'1',0.019130,0.085500,0.021600,174.00,174.00,174.00,0.0,0.0,0.0,0.0,1,0,0.0
 28,29,'1',0.023700,0.094300,0.023800,165.00,165.00,165.00,0.0,0.0,0.0,0.0,1,0,0.0
 8,30,'1',0.004310,0.050400,0.514000,580.00,580.00,580.00,0.0,0.0,0.0,0.0,1,0,0.0
 26,30,'1',0.007990,0.086000,0.908000,340.00,340.00,340.00,0.0,0.0,0.0,0.0,1,0,0.0
 17,31,'1',0.047400,0.156300,0.039900,151.00,151.00,151.00,0.0,0.0,0.0,0.0,1,0,0.0
 29,31,'1',0.010800,0.033100,0.008300,146.00,146.00,146.00,0.0,0.0,0.0,0.0,1,0,0.0
 23,32,'1',0.031700,0.115300,0.117300,158.00,158.00,158.00,0.0,0.0,0.0,0.0,1,0,0.0
 31,32,'1',0.029800,0.098500,0.025100,151.00,151.00,151.00,0.0,0.0,0.0,0.0,1,0,0.0
 27,32,'1',0.022900,0.075500,0.019260,151.00,151.00,151.00,0.0,0.0,0.0,0.0,1,0,0.0
 15,33,'1',0.038000,0.124400,0.031940,150.00,150.00,150.00,0.0,0.0,0.0,0.0,1,0,0.0
 19,34,'1',0.075200,0.247000,0.063200,114.00,114.00,114.00,0.0,0.0,0.0,0.0,1,0,0.0
 35,36,'1',0.002240,0.010200,0.002680,176.00,176.00,176.00,0.0,0.0,0.0,0.0,1,0,0.0
 35,37,'1',0.011000,0.049700,0.013180,175.00,175.00,175.00,0.0,0.0,0.0,0.0,1,0,0.0
 33,37,'1',0.041500,0.142000,0.036600,154.00,154.00,154.00,0.0,0.0,0.0,0.0,1,0,0.0
 34,36,'1',0.008710,0.026800,0.005680,146.00,146.00,146.00,0.0,0.0,0.0,0.0,1,0,0.0
 34,37,'1',0.002560,0.009400,0.009840,159.00,159.00,159.00,0.0,0.0,0.0,0.0,1,0,0.0
 37,39,'1',0.032100,0.106000,0.027000,151.00,151.00,151.00,0.0,0.0,0.0,0.0,1,0,0.0
 37,40,'1',0.059300,0.168000,0.042000,140.00,140.00,140.00,0.0,0.0,0.0,0.0,1,0,0.0
 30,38,'1',0.004640,0.054000,0.422000,542.00,542.00,542.00,0.0,0.0,0.0,0.0,1,0,0.0
 39,40,'1',0.018400,0.060500,0.015520,151.00,151.00,151.00,0.0,0.0,0.0,0.0,1,0,0.0
 40,41,'1',0.014500,0.048700,0.012220,152.00,152.00,152.00,0.0,0.0,0.0,0.0,1,0,0.0
 40,42,'1',0.055500,0.183000,0.046600,151.00,151.00,151.00,0.0,0.0,0.0,0.0,1,0,0.0
 41,42,'1',0.041000,0.135000,0.034400,151.00,151.00,151.00,0.0,0.0,0.0,0.0,1,0,0.0
 43,44,'1',0.060800,0.245400,0.060680,117.00,117.00,117.00,0.0,0.0,0.0,0.0,1,0,0.0
 34,43,'1',0.041300,0.168100,0.042260,167.00,167.00,167.00,0.0,0.0,0.0,0.0,1,0,0.0
 44,45,'1',0.022400,0.090100,0.022400,166.00,166.00,166.00,0.0,0.0,0.0,0.0,1,0,0.0
 45,46,'1',0.040000,0.135600,0.033200,153.00,153.00,153.00,0.0,0.0,0.0,0.0,1,0,0.0
 46,47,'1',0.038000,0.127000,0.031600,152.00,152.00,152.00,0.0,0.0,0.0,0.0,1,0,0.0
 46,48,'1',0.060100,0.189000,0.047200,148.00,148.00,148.00,0.0,0.0,0.0,0.0,1,0,0.0
 47,49,'1',0.019100,0.062500,0.016040,150.00,150.00,150.00,0.0,0.0,0.0,0.0,1,0,0.0
 42,49,'1',0.071500,0.323000,0.086000,89.00,89.00,89.00,0.0,0.0,0.0,0.0,1,0,0.0
 42,49,'1',0.071500,0.323000,0.086000,89.00,89.00,89.00,0.0,0.0,0.0,0.0,1,0,0.0
 45,49,'1',0.068400,0.186000,0.044400,138.00,138.00,138.00,0.0,0.0,0.0,0.0,1,0,0.0
 48,49,'1',0.017900,0.050500,0.012580,140.00,140.00,140.00,0.0,0.0,0.0,0.0,1,0,0.0
 49,50,'1',0.026700,0.075200,0.018740,140.00,140.00,140.00,0.0,0.0,0.0,0.0,1,0,0.0
 49,51,'1',0.048600,0.137000,0.034200,140.00,140.00,140.00,0.0,0.0,0.0,0.0,1,0,0.0
 51,52,'1',0.020300,0.058800,0.013960,142.00,142.00,142.00,0.0,0.0,0.0,0.0,1,0,0.0
 52,53,'1',0.040500,0.163500,0.040580,166.00,166.00,166.00,0.0,0.0,0.0,0.0,1,0,0.0
 53,54,'1',0.026300,0.122000,0.031000,177.00,177.00,177.00,0.0,0.0,0.0,0.0,1,0,0.0
 49,54,'1',0.073000,0.289000,0.073800,99.00,99.00,99.00,0.0,0.0,0.0,0.0,1,0,0.0
 49,54,'1',0.086900,0.291000,0.073000,97.00,97.00,97.00,0.0,0.0,0.0,0.0,1,0,0.0
 54,55,'1',0.016900,0.070700,0.020200,169.00,169.00,169.00,0.0,0.0,0.0,0.0,1,0,0.0
 54,56,'1',0.002750,0.009550,0.007320,155.00,155.00,155.00,0.0,0.0,0.0,0.0,1,0,0.0
 55,56,'1',0.004880,0.015100,0.003740,146.00,146.00,146.00,0.0,0.0,0.0,0.0,1,0,0.0
 56,57,'1',0.034300,0.096600,0.024200,140.00,140.00,140.00,0.0,0.0,0.0,0.0,1,0,0.0
 50,57,'1',0.047400,0.134000,0.033200,140.00,140.00,140.00,0.0,0.0,0.0,0.0,1,0,0.0
 56,58,'1',0.034300,0.096600,0.024200,140.00,140.00,140.00,0.0,0.0,0.0,0.0,1,0,0.0
 51,58,'1',0.025500,0.071900,0.017880,140.00,140.00,140.00,0.0,0.0,0.0,0.0,1,0,0.0
 54,59,'1',0.050300,0.229300,0.059800,125.00,125.00,125.00,0.0,0.0,0.0,0.0,1,0,0.0
 56,59,'1',0.082500,0.251000,0.056900,112.00,112.00,112.00,0.0,0.0,0.0,0.0,1,0,0.0
 56,59,'1',0.080300,0.239000,0.053600,117.00,117.00,117.00,0.0,0.0,0.0,0.0,1,0,0.0
 55,59,'1',0.047390,0.215800,0.056460,133.00,133.00,133.00,0.0,0.0,0.0,0.0,1,0,0.0
 59,60,'1',0.031700,0.145000,0.037600,176.00,176.00,176.00,0.0,0.0,0.0,0.0,1,0,0.0
 59,61,'1',0.032800,0.150000,0.038800,176.00,176.00,176.00,0.0,0.0,0.0,0.0,1,0,0.0
 60,61,'1',0.002640,0.013500,0.014560,186.00,186.00,186.00,0.0,0.0,0.0,0.0,1,0,0.0
 60,62,'1',0.012300,0.056100,0.014680,176.00,176.00,176.00,0.0,0.0,0.0,0.0,1,0,0.0
 61,62,'1',0.008240,0.037600,0.009800,176.00,176.00,176.00,0.0,0.0,0.0,0.0,1,0,0.0
 63,64,'1',0.001720,0.020000,0.216000,687.00,687.00,687.00,0.0,0.0,0.0,0.0,1,0,0.0
 38,65,'1',0.009010,0.098600,1.046000,297.00,297.00,297.00,0.0,0.0,0.0,0.0,1,0,0.0
 64,65,'1',0.002690,0.030200,0.380000,675.00,675.00,675.00,0.0,0.0,0.0,0.0,1,0,0.0
 49,66,'1',0.018000,0.091900,0.024800,186.00,186.00,186.00,0.0,0.0,0.0,0.0,1,0,0.0
 49,66,'1',0.018000,0.091900,0.024800,186.00,186.00,186.00,0.0,0.0,0.0,0.0,1,0,0.0
 62,66,'1',0.048200,0.218000,0.057800,132.00,132.00,132.00,0.0,0.0,0.0,0.0,1,0,0.0
 62,67,'1',0.025800,0.117000,0.031000,176.00,176.00,176.00,0.0,0.0,0.0,0.0,1,0,0.0
 66,67,'1',0.022400,0.101500,0.026820,176.00,176.00,176.00,0.0,0.0,0.0,0.0,1,0,0.0
 65,68,'1',0.001380,0.016000,0.638000,686.00,686.00,686.00,0.0,0.0,0.0,0.0,1,0,0.0
 47,69,'1',0.084400,0.277800,0.070920,102.00,102.00,102.00,0.0,0.0,0.0,0.0,1,0,0.0
 49,69,'1',0.098500,0.324000,0.082800,87.00,87.00,87.00,0.0,0.0,0.0,0.0,1,0,0.0
 69,70,'1',0.030000,0.127000,0.122000,170.00,170.00,170.00,0.0,0.0,0.0,0.0,1,0,0.0
 24,70,'1',0.002210,0.411500,0.101980,72.00,72.00,72.00,0.0,0.0,0.0,0.0,1,0,0.0
 70,71,'1',0.008820,0.035500,0.008780,166.00,166.00,166.00,0.0,0.0,0.0,0.0,1,0,0.0
 24,72,'1',0.048800,0.196000,0.048800,146.00,146.00,146.00,0.0,0.0,0.0,0.0,1,0,0.0
 71,72,'1',0.044600,0.180000,0.044440,159.00,159.00,159.00,0.0,0.0,0.0,0.0,1,0,0.0
 71,73,'1',0.008660,0.045400,0.011780,188.00,188.00,188.00,0.0,0.0,0.0,0.0,1,0,0.0
 70,74,'1',0.040100,0.132300,0.033680,151.00,151.00,151.00,0.0,0.0,0.0,0.0,1,0,0.0
 70,75,'1',0.042800,0.141000,0.036000,151.00,151.00,151.00,0.0,0.0,0.0,0.0,1,0,0.0
 69,75,'1',0.040500,0.122000,0.124000,145.00,145.00,145.00,0.0,0.0,0.0,0.0,1,0,0.0
 74,75,'1',0.012300,0.040600,0.010340,151.00,151.00,151.00,0.0,0.0,0.0,0.0,1,0,0.0
 76,77,'1',0.044400,0.148000,0.036800,152.00,152.00,152.00,0.0,0.0,0.0,0.0,1,0,0.0
 69,77,'1',0.030900,0.101000,0.103800,150.00,150.00,150.00,0.0,0.0,0.0,0.0,1,0,0.0
 75,77,'1',0.060100,0.199900,0.049780,141.00,141.00,141.00,0.0,0.0,0.0,0.0,1,0,0.0
 77,78,'1',0.003760,0.012400,0.012640,151.00,151.00,151.00,0.0,0.0,0.0,0.0,1,0,0.0
 78,79,'1',0.005460,0.024400,0.006480,174.00,174.00,174.00,0.0,0.0,0.0,0.0,1,0,0.0
 77,80,'1',0.017000,0.048500,0.047200,141.00,141.00,141.00,0.0,0.0,0.0,0.0,1,0,0.0
 77,80,'1',0.029400,0.105000,0.022800,157.00,157.00,157.00,0.0,0.0,0.0,0.0,1,0,0.0
 79,80,'1',0.015600,0.070400,0.018700,175.00,175.00,175.00,0.0,0.0,0.0,0.0,1,0,0.0
 68,81,'1',0.001750,0.020200,0.808000,684.00,684.00,684.00,0.0,0.0,0.0,0.0,1,0,0.0
 77,82,'1',0.029800,0.085300,0.081740,141.00,141.00,141.00,0.0,0.0,0.0,0.0,1,0,0.0
 82,83,'1',0.011200,0.036650,0.037960,150.00,150.00,150.00,0.0,0.0,0.0,0.0,1,0,0.0
 83,84,'1',0.062500,0.132000,0.025800,122.00,122.00,122.00,0.0,0.0,0.0,0.0,1,0,0.0
 83,85,'1',0.043000,0.148000,0.034800,154.00,154.00,154.00,0.0,0.0,0.0,0.0,1,0,0.0
 84,85,'1',0.030200,0.064100,0.012340,122.00,122.00,122.00,0.0,0.0,0.0,0.0,1,0,0.0
 85,86,'1',0.035000,0.123000,0.027600,156.00,156.00,156.00,0.0,0.0,0.0,0.0,1,0,0.0
 86,87,'1',0.028280,0.207400,0.044500,141.00,141.00,141.00,0.0,0.0,0.0,0.0,1,0,0.0
 85,88,'1',0.020000,0.102000,0.027600,186.00,186.00,186.00,0.0,0.0,0.0,0.0,1,0,0.0
 85,89,'1',0.023900,0.173000,0.047000,168.00,168.00,168.00,0.0,0.0,0.0,0.0,1,0,0.0
 88,89,'1',0.013900,0.071200,0.019340,186.00,186.00,186.00,0.0,0.0,0.0,0.0,1,0,0.0
 89,90,'1',0.051800,0.188000,0.052800,151.00,151.00,151.00,0.0,0.0,0.0,0.0,1,0,0.0
 89,90,'1',0.023800,0.099700,0.106000,169.00,169.00,169.00,0.0,0.0,0.0,0.0,1,0,0.0
 90,91,'1',0.025400,0.083600,0.021400,151.00,151.00,151.00,0.0,0.0,0.0,0.0,1,0,0.0
 89,92,'1',0.009900,0.050500,0.054800,186.00,186.00,186.00,0.0,0.0,0.0,0.0,1,0,0.0
 89,92,'1',0.039300,0.158100,0.041400,166.00,166.00,166.00,0.0,0.0,0.0,0.0,1,0,0.0
 91,92,'1',0.038700,0.127200,0.032680,151.00,151.00,151.00,0.0,0.0,0.0,0.0,1,0,0.0
 92,93,'1',0.025800,0.084800,0.021800,151.00,151.00,151.00,0.0,0.0,0.0,0.0,1,0,0.0
 92,94,'1',0.048100,0.158000,0.040600,151.00,151.00,151.00,0.0,0.0,0.0,0.0,1,0,0.0
 93,94,'1',0.022300,0.073200,0.018760,151.00,151.00,151.00,0.0,0.0,0.0,0.0,1,0,0.0
 94,95,'1',0.013200,0.043400,0.011100,151.00,151.00,151.00,0.0,0.0,0.0,0.0,1,0,0.0
 80,96,'1',0.035600,0.182000,0.049400,159.00,159.00,159.00,0.0,0.0,0.0,0.0,1,0,0.0
 82,96,'1',0.016200,0.053000,0.054400,150.00,150.00,150.00,0.0,0.0,0.0,0.0,1,0,0.0
 94,96,'1',0.026900,0.086900,0.023000,149.00,149.00,149.00,0.0,0.0,0.0,0.0,1,0,0.0
 80,97,'1',0.018300,0.093400,0.025400,186.00,186.00,186.00,0.0,0.0,0.0,0.0,1,0,0.0
 80,98,'1',0.023800,0.108000,0.028600,176.00,176.00,176.00,0.0,0.0,0.0,0.0,1,0,0.0
 80,99,'1',0.045400,0.206000,0.054600,140.00,140.00,140.00,0.0,0.0,0.0,0.0,1,0,0.0
 92,100,'1',0.064800,0.295000,0.047200,98.00,98.00,98.00,0.0,0.0,0.0,0.0,1,0,0.0
 94,100,'1',0.017800,0.058000,0.060400,150.00,150.00,150.00,0.0,0.0,0.0,0.0,1,0,0.0
 95,96,'1',0.017100,0.054700,0.014740,149.00,149.00,149.00,0.0,0.0,0.0,0.0,1,0,0.0
 96,97,'1',0.017300,0.088500,0.024000,186.00,186.00,186.00,0.0,0.0,0.0,0.0,1,0,0.0
 98,100,'1',0.039700,0.179000,0.047600,160.00,160.00,160.00,0.0,0.0,0.0,0.0,1,0,0.0
 99,100,'1',0.018000,0.081300,0.021600,175.00,175.00,175.00,0.0,0.0,0.0,0.0,1,0,0.0
 100,101,'1',0.027700,0.126200,0.032800,176.00,176.00,176.00,0.0,0.0,0.0,0.0,1,0,0.0
 92,102,'1',0.012300,0.055900,0.014640,176.00,176.00,176.00,0.0,0.0,0.0,0.0,1,0,0.0
 101,102,'1',0.024600,0.112000,0.029400,176.00,176.00,176.00,0.0,0.0,0.0,0.0,1,0,0.0
 100,103,'1',0.016000,0.052500,0.053600,151.00,151.00,151.00,0.0,0.0,0.0,0.0,1,0,0.0
 100,104,'1',0.045100,0.204000,0.054100,141.00,141.00,141.00,0.0,0.0,0.0,0.0,1,0,0.0
 103,104,'1',0.046600,0.158400,0.040700,153.00,153.00,153.00,0.0,0.0,0.0,0.0,1,0,0.0
 103,105,'1',0.053500,0.162500,0.040800,145.00,145.00,145.00,0.0,0.0,0.0,0.0,1,0,0.0
 100,106,'1',0.060500,0.229000,0.062000,124.00,124.00,124.00,0.0,0.0,0.0,0.0,1,0,0.0
 104,105,'1',0.009940,0.037800,0.009860,161.00,161.00,161.00,0.0,0.0,0.0,0.0,1,0,0.0
 105,106,'1',0.014000,0.054700,0.014340,164.00,164.00,164.00,0.0,0.0,0.0,0.0,1,0,0.0
 105,107,'1',0.053000,0.183000,0.047200,154.00,154.00,154.00,0.0,0.0,0.0,0.0,1,0,0.0
 105,108,'1',0.026100,0.070300,0.018440,137.00,137.00,137.00,0.0,0.0,0.0,0.0,1,0,0.0
 106,107,'1',0.053000,0.183000,0.047200,154.00,154.00,154.00,0.0,0.0,0.0,0.0,1,0,0.0
 108,109,'1',0.010500,0.028800,0.007600,138.00,138.00,138.00,0.0,0.0,0.0,0.0,1,0,0.0
 103,110,'1',0.039060,0.181300,0.046100,159.00,159.00,159.00,0.0,0.0,0.0,0.0,1,0,0.0
 109,110,'1',0.027800,0.076200,0.020200,138.00,138.00,138.00,0.0,0.0,0.0,0.0,1,0,0.0
 110,111,'1',0.022000,0.075500,0.020000,154.00,154.00,154.00,0.0,0.0,0.0,0.0,1,0,0.0
 110,112,'1',0.024700,0.064000,0.062000,135.00,135.00,135.00,0.0,0.0,0.0,0.0,1,0,0.0
 17,113,'1',0.009130,0.030100,0.007680,151.00,151.00,151.00,0.0,0.0,0.0,0.0,1,0,0.0
 32,113,'1',0.061500,0.203000,0.051800,139.00,139.00,139.00,0.0,0.0,0.0,0.0,1,0,0.0
 32,114,'1',0.013500,0.061200,0.016280,176.00,176.00,176.00,0.0,0.0,0.0,0.0,1,0,0.0
 27,115,'1',0.016400,0.074100,0.019720,175.00,175.00,175.00,0.0,0.0,0.0,0.0,1,0,0.0
 114,115,'1',0.002300,0.010400,0.002760,175.00,175.00,175.00,0.0,0.0,0.0,0.0,1,0,0.0
 68,116,'1',0.000340,0.004050,0.164000,7218.00,7218.00,7218.00,0.0,0.0,0.0,0.0,1,0,0.0
 12,117,'1',0.032900,0.140000,0.035800,170.00,170.00,170.00,0.0,0.0,0.0,0.0,1,0,0.0
 75,118,'1',0.014500,0.048100,0.011980,151.00,151.00,151.00,0.0,0.0,0.0,0.0,1,0,0.0
 76,118,'1',0.016400,0.054400,0.013560,151.00,151.00,151.00,0.0,0.0,0.0,0.0,1,0,0.0
0 / END OF BRANCH DATA, BEGIN TRANSFORMER DATA
 8,5,0,'1',1,1,1,0.0,0.0,2,'',1,1,1.0,0,1.0,0,0.0,0.0
 0.000000,0.026700,100.0
 0.985000,0.0,0.000000,1099.00,0.00,0.00,0,0,1.1,0.9,1.1,0.9,0,0,0.0
 1.000000,0.0
 26,25,0,'1',1,1,1,0.0,0.0,2,'',1,1,1.0,0,1.0,0,0.0,0.0
 0.000000,0.038200,100.0
 0.960000,0.0,0.000000,768.00,0.00,0.00,0,0,1.1,0.9,1.1,0.9,0,0,0.0
 1.000000,0.0
 30,17,0,'1',1,1,1,0.0,0.0,2,'',1,1,1.0,0,1.0,0,0.0,0.0
 0.000000,0.038800,100.0
 0.960000,0.0,0.000000,756.00,0.00,0.00,0,0,1.1,0.9,1.1,0.9,0,0,0.0
 1.000000,0.0
 38,37,0,'1',1,1,1,0.0,0.0,2,'',1,1,1.0,0,1.0,0,0.0,0.0
 0.000000,0.037500,100.0
 0.935000,0.0,0.000000,783.00,0.00,0.00,0,0,1.1,0.9,1.1,0.9,0,0,0.0
 1.000000,0.0
 63,59,0,'1',1,1,1,0.0,0.0,2,'',1,1,1.0,0,1.0,0,0.0,0.0
 0.000000,0.038600,100.0
 0.960000,0.0,0.000000,760.00,0.00,0.00,0,0,1.1,0.9,1.1,0.9,0,0,0.0
 1.000000,0.0
 64,61,0,'1',1,1,1,0.0,0.0,2,'',1,1,1.0,0,1.0,0,0.0,0.0
 0.000000,0.026800,100.0
 0.985000,0.0,0.000000,1095.00,0.00,0.00,0,0,1.1,0.9,1.1,0.9,0,0,0.0
 1.000000,0.0
 65,66,0,'1',1,1,1,0.0,0.0,2,'',1,1,1.0,0,1.0,0,0.0,0.0
 0.000000,0.037000,100.0
 0.935000,0.0,0.000000,793.00,0.00,0.00,0,0,1.1,0.9,1.1,0.9,0,0,0.0
 1.000000,0.0
 68,69,0,'1',1,1,1,0.0,0.0,2,'',1,1,1.0,0,1.0,0,0.0,0.0
 0.000000,0.037000,100.0
 0.935000,0.0,0.000000,793.00,0.00,0.00,0,0,1.1,0.9,1.1,0.9,0,0,0.0
 1.000000,0.0
 81,80,0,'1',1,1,1,0.0,0.0,2,'',1,1,1.0,0,1.0,0,0.0,0.0
 0.000000,0.037000,100.0
 0.935000,0.0,0.000000,793.00,0.00,0.00,0,0,1.1,0.9,1.1,0.9,0,0,0.0
 1.000000,0.0
0 / END OF TRANSFORMER DATA
Q
